* PSpice Model Editor - Version 17.2.0

*$
*BeginSpec
*IF: (1.7274,1.0308E-3) (1.7445,1.3273E-3) (1.7684,2.1347E-3) (1.7948,3.4684E-3) (1.8037,4.6975E-3) (1.8216,7.4041E-3) (1.8511,10.763E-3) (1.8672,15.027E-3) (1.8811,19.944E-3)
*IF: (1.9642,28.413E-3) (2.0713,43.446E-3) (2.1763,63.157E-3) (2.2780,82.148E-3) (2.3264,93.688E-3)
*JC:
*RL:
*RB: Vz=0 Iz=0 Zz=0
*RR: Trr=0 Ifwd=10.000E-3 Irev=10.000E-3 Rl=100
*EndSpec

*BeginTrace
*IF: 1,0,.4,2.3264,1,3,0,0,-1 (27)
*JC: 0,1,.1,10,1,3,0,0,-1 (27)
*RL: 0,0,1,100,1,3,0,0,-1 (27)
*RB: 0,1,100.00E-6,1,1,3,0,0,-1 (27)
*RR: 0,0,-5.0000E-9,20.000E-9,1,3,0,0,-1 (27)
*EndTrace

*BeginParam
*IS=10.000E-21 (10.000E-21,.1,0)
*N=1.6859 (.2,5,0)
*RS=4.4218 (1.0000E-6,100,0)
*IKF=.3821 (0,1.0000E3,0)
*XTI=3 (-100,100,0)
*EG=1.1100 (.1,5.5100,0)
*CJO=1.0000E-12 (10.000E-21,1.0000E-3,0)
*M=.3333 (.1,10,0)
*VJ=.75 (.3905,10,0)
*FC=.5 (1.0000E-3,10,0)
*ISR=100.00E-12 (10.000E-21,.1,0)
*NR=2 (.5,5,0)
*BV=100 (.1,1.0000E6,0)
*IBV=100.00E-6 (1.0000E-9,10,0)
*TT=5.0000E-9 (100.00E-18,1.0000E-3,0)
*EndParam

*DEVICE=led,D

* led D model
* created using Model Editor release 17.2.0 on 07/03/23 at 15:21
* The Model Editor is a PSpice product.
.MODEL led D
+ IS=10.000E-21
+ N=1.6859
+ RS=4.4218

*$
