* PSpice Model Editor - Version 17.2.0

*$
*BeginSpec
*IF: (1.7607,2.9025E-3) (1.7821,16.600E-3) (1.8036,31.059E-3) (1.8330,46.279E-3) (1.8518,61.119E-3) (1.8812,76.338E-3) (1.9027,89.275E-3) (1.9134,.10297) (1.9375,.11401)
*IF: (2.0071,.1239) (2.0768,.13303) (2.1786,.14673) (2.2455,.15586) (2.2857,.15891) (2.3500,.16537) (2.4036,.17146)
*JC:
*RL:
*RB: Vz=0 Iz=0 Zz=0
*RR: Trr=0 Ifwd=10.000E-3 Irev=10.000E-3 Rl=100
*EndSpec

*BeginTrace
*IF: 1,0,.4,2.4036,1,3,0,0,-1 (27)
*JC: 0,1,.1,10,1,3,0,0,-1 (27)
*RL: 0,0,1,100,1,3,0,0,-1 (27)
*RB: 0,1,100.00E-6,1,1,3,0,0,-1 (27)
*RR: 0,0,-5.0000E-9,20.000E-9,1,3,0,0,-1 (27)
*EndTrace

*BeginParam
*IS=10.000E-21 (10.000E-21,.1,0)
*N=1.5317 (.2,5,0)
*RS=2.9153 (1.0000E-6,100,0)
*IKF=1.5234 (0,1.0000E3,0)
*XTI=3 (-100,100,0)
*EG=1.1100 (.1,5.5100,0)
*CJO=1.0000E-12 (10.000E-21,1.0000E-3,0)
*M=.3333 (.1,10,0)
*VJ=.75 (.3905,10,0)
*FC=.5 (1.0000E-3,10,0)
*ISR=100.00E-12 (10.000E-21,.1,0)
*NR=2 (.5,5,0)
*BV=100 (.1,1.0000E6,0)
*IBV=100.00E-6 (1.0000E-9,10,0)
*TT=5.0000E-9 (100.00E-18,1.0000E-3,0)
*EndParam

*DEVICE=ledGalben,D

* ledGalben D model
* created using Model Editor release 17.2.0 on 07/02/23 at 21:49
* The Model Editor is a PSpice product.
.MODEL ledGalben D
+ IS=10.000E-21
+ N=1.5317
+ RS=2.9153
*$
